[PIPES]
 197                             190                             191                                  88.6880      82.0400       0.0015       1.7738 
 197                             190                             191                                  88.6880      82.0400       0.0015       1.7738 
 201                             196                             5495                                 49.0300     500.0000       0.0300       0.9806 
 202                             198                             199                                  26.6800     500.0000       0.0300       0.5336 
 201                             196                             5495                                 49.0300     500.0000       0.0300       0.9806 
 202                             198                             199                                  26.6800     500.0000       0.0300       0.5336 
 197                             190                             191                                  88.6880      82.0400       0.0015       1.7738 
 201                             196                             5495                                 49.0300     500.0000       0.0300       0.9806 
 202                             198                             199                                  26.6800     500.0000       0.0300       0.5336 
 203                             207                             Tank_1                                7.3900     600.0000       0.0015       0.2332 CLOSED
 204                             9545                            9544                                  6.7800     150.0000       0.0300       0.1740 
 226                             238                             239                                   3.4174     250.0000       0.1200       0.0683 
 227                             238                             240                                 104.9083      75.0000       0.1200       2.0982 
 228                             241                             242                                 119.7500      75.0000       0.0300       2.3950 
 229                             241                             243                                  75.1203      75.0000       0.0300       1.5024 
 230                             244                             245                                   7.4668      75.0000       0.0300       0.1493 CLOSED
 231                             246                             247                                 114.6285     150.0000       0.0300       2.2926 
 232                             6382                            6366                                  2.0000     100.0000       0.0300       0.0400 
 233                             250                             251                                 141.0686      82.0400       0.0015       2.8214 
 234                             252                             253                                  77.4107     100.0000       0.0300       1.5482 
 235                             254                             255                                  88.7250     150.0000       0.0300       1.7745 
 236                             256                             257                                  47.1455      75.0000       0.0300       0.9429 
 237                             258                             259                                  77.2425     150.0000       0.1200       1.5448 CLOSED
 238                             260                             261                                   5.2920     200.0000       0.1200       0.1058 
 239                             6880                            263                                  11.1200     100.0000       0.1200       0.2224 
 240                             264                             265                                   4.9000      82.0400       0.0015       0.0980 
 241                             266                             267                                  68.9582      75.0000       0.0300       1.3792 

[END]
