[TITLE]
EPANET Example Network 1
A simple example of modeling chlorine decay. Both bulk and
wall reactions are included.

[JUNCTIONS]
10	710	0	
11	710	150	
12	700	150	
13	695	100	
21	700	150	
22	695	200	
23	690	150	
31	700	100	
32	710	100	

[TANKS]
2	850	120	100	150	50.5	0	

[RESERVOIRS]
9	800	

[PIPES]
10	10	11	10530	18	100	0	Open
11	11	12	5280	14	100	0	Open
12	12	13	5280	10	100	0	Open
21	21	22	5280	10	100	0	Open
22	22	23	5280	12	100	0	Open
31	31	32	5280	6	100	0	Open
110	2	12	200	18	100	0	Open
111	11	21	5280	10	100	0	Open
112	12	22	5280	12	100	0	Open
113	13	23	5280	8	100	0	Open
121	21	31	5280	8	100	0	Open
122	22	32	5280	6	100	0	Open

[PUMPS]
9	9	10	HEAD 1

[VALVES]

[DEMANDS]

[PATTERNS]
1 1
1 1.2
1 1.4
1 1.6
1 1.4
1 1.2
1 1
1 0.8
1 0.6
1 0.4
1 0.6
1 0.8

[CURVES]
1 1500 250

[CONTROLS]
LINK 9 OPEN IF NODE 2 BELOW 110
LINK 9 CLOSED IF NODE 2 ABOVE 140

[RULES]

[ENERGY]
Global Efficiency 75
Global Price 0.0
Demand Charge 0.0

[STATUS]

[EMITTERS]

[QUALITY]
10	0.5
11	0.5
12	0.5
13	0.5
21	0.5
22	0.5
23	0.5
31	0.5
32	0.5
9	1
2	1

[SOURCES]

[REACTIONS]
Order Bulk 1
Order Tank 1
Order Wall 1
Global Bulk -.5
Global Wall -1
Limiting Potential 0.0
Roughness Correlation 0.0

[MIXING]

[TIMES]
Duration 24:00
Hydraulic Timestep 1:00
Quality Timestep 0:05
Pattern Timestep 2:00
Pattern Start 0:00
Report Timestep 1:00
Report Start 0:00
Start ClockTime 12 am
Statistic None

[REPORT]
Status Yes
Summary No
Page 0
Links All
Nodes All
Energy Yes

[OPTIONS]
UNITS GPM
HEADLOSS H-W
QUALITY NONE
VISCOSITY 1.0
DIFFUSIVITY 1.0
SPECIFIC GRAVITY 1.0
TRIALS 40
ACCURACY 0.001
UNBALANCED STOP
PATTERN 1
DEMAND MULTIPLIER 1.0
EMITTER EXPONENT 0.5
TOLERANCE 0.01

[COORDINATES]
10	20	70
11	30	70
12	50	70
13	70	70
21	30	40
22	50	40
23	70	40
31	30	10
32	50	10
9	10	70
2	50	90

[VERTICES]

[LABELS]
6.99	73.63	Source	
13.48	68.13	Pump	
43.85	91.21	Tank	

[BACKDROP]
DIMENSIONS 7.00 6.00 73.00 94.00
UNITS None
FILE
OFFSET 0.00 0.00

[TAGS]

[END]
