[TITLE]

[JUNCTIONS]
2	0	0	
3	0	0	
4	0	23	
5	0	32	

[TANKS]

[RESERVOIRS]
1	100	

[PIPES]
1	1	2	1000	12	100	0	Open
3	3	4	1000	12	100	0	Open
4	4	5	1000	12	100	0	Open
5	5	3	1000	12	100	0	Open

[PUMPS]

[VALVES]
2	2	3	12	PRV	50	0

[DEMANDS]
2	1.1	P1
2	0.1	P2
2	0.2	P3

[PATTERNS]



[CURVES]

[CONTROLS]

[RULES]

[ENERGY]
Global Efficiency 75
Global Price 0
Demand Charge 0

[STATUS]

[EMITTERS]

[QUALITY]

[SOURCES]

[REACTIONS]
Order Bulk 1
Order Tank 1
Order Wall 1
Global Bulk 0
Global Wall 0
Limiting Potential 0
Roughness Correlation 0

[MIXING]

[TIMES]
Duration 0
Hydraulic Timestep 1:00
Quality Timestep 0:05
Pattern Timestep 1:00
Pattern Start 0:00
Report Timestep 1:00
Report Start 0:00
Start ClockTime 12 am
Statistic None

[REPORT]
Status No
Summary No
Page 0

[OPTIONS]
UNITS GPM
HEADLOSS H-W
QUALITY NONE
VISCOSITY 1
DIFFUSIVITY 1
SPECIFIC GRAVITY 1
TRIALS 40
ACCURACY 0.001
UNBALANCED STOP
PATTERN 1
DEMAND MULTIPLIER 1.0
EMITTER EXPONENT 0.5
TOLERANCE 0.01

[COORDINATES]
2	2618.64	5677.97
3	5788.14	5677.97
4	7720.34	7067.8
5	7957.63	4016.95
1	-584.75	5745.76

[VERTICES]
1	59.32	6406.78
1	449.15	6711.86
1	1025.42	6966.1
1	1228.81	6728.81
1	1703.39	6694.92
1	1822.03	6406.78
1	2177.97	6271.19
1	2550.85	6067.8
3	6449.15	5627.12
3	6686.44	5762.71
3	6584.75	6152.54
3	6991.53	6271.19
3	7398.31	6389.83
3	7110.17	6796.61
3	7466.1	6745.76
3	7788.14	6711.86
3	7262.71	6949.15
4	8550.85	6457.63
4	9144.07	5915.25
4	9245.76	5372.88
4	8906.78	4966.1
4	8889.83	4610.17
4	9127.12	3966.1
4	8754.24	3830.51
4	8381.36	4101.69
4	8347.46	3830.51
4	8076.27	3559.32
4	8008.47	3677.97
4	7754.24	3728.81
5	7398.31	4101.69
5	6838.98	4135.59
5	6669.49	4288.14
5	6449.15	4322.03
5	6754.24	4627.12
5	5805.08	4661.02
5	5686.44	4898.31
5	6076.27	5033.9
5	5618.64	5186.44

[LABELS]

[BACKDROP]
DIMENSIONS 0.00 0.00 10000.00 10000.00
UNITS None
FILE
OFFSET 0.00 0.00

[TAGS]

[END]
