
[TITLE]

[JUNCTIONS]
2	0	0	
3	0	0	
4	0	23	
5	0	32	

[TANKS]

[RESERVOIRS]
1	100	

[PIPES]
1	1	2	1000	12	100	0	Open
3	3	4	1000	12	100	0	Open
4	4	5	1000	12	100	0	Open
5	5	3	1000	12	100	0	Open

[PUMPS]

[VALVES]
2	2	3	12	PRV	50	0

[DEMANDS]
2	1.1	P1
2	0.1	P2
2	0.2	P3

[PATTERNS]



[CURVES]

[CONTROLS]

[ENERGY]
Global Efficiency 75
Global Price 0
Demand Charge 0

[STATUS]

[EMITTERS]

[QUALITY]

[SOURCES]

[REACTIONS]
Order Bulk 1
Order Tank 1
Order Wall 1
Global Bulk 0
Global Wall 0
Limiting Potential 0
Roughness Correlation 0

[MIXING]

[TIMES]
Duration 0
Hydraulic Timestep 1:00
Quality Timestep 0:05
Pattern Timestep 1:00
Pattern Start 0:00
Report Timestep 1:00
Report Start 0:00
Start ClockTime 12 am
Statistic None

[REPORT]
Status No
Summary No
Page 0

[OPTIONS]
UNITS GPM
HEADLOSS H-W
QUALITY NONE
VISCOSITY 1
DIFFUSIVITY 1
SPECIFIC GRAVITY 1
TRIALS 40
ACCURACY 0.001
UNBALANCED STOP
PATTERN 1
DEMAND MULTIPLIER 1.0
EMITTER EXPONENT 0.5
TOLERANCE 0.01

[COORDINATES]
2	2618.64	5677.97
3	5788.14	5677.97
4	7720.34	7067.8
5	7957.63	4016.95
1	-584.75	5745.76

[END]
