[TITLE]
Network from 2013 ICDM Paper 

[JUNCTIONS]
;ID  Elev  Demand
1    1     0.3 
2    1     0.3
3    1     0.3
4    1     0.3 
5    1     0.3
6    1     0.3
7    1     0.3
8    1     0.3
9    1     0.3
10   1     0.3
11   1     0.3
12   1     0.3
13   1     0.3
14   1     0.3 
15   1     0.3 
16   1     0.3


[RESERVOIRS]
;ID Elev
R   2  

[PIPES]
;ID   Node1 Node2 Length Diam  Roughness
;                 [M]    [mm]  [mm]
12    1     2     100    100   0.03
23    2     3     100     90   0.03
1R    1     R     200    120   0.02
34    3     4     200    100   0.02
45    4     5     300    100   0.02
78    7     8      40     90   0.04
58    5     8     120     80   0.04
56    5     6      80     90   0.03
79    7     9     100    120   0.01
910   9    10      80     80   0.02
1011 10    11      90     80   0.02
913   9    13     100     90   0.01
1314  13   14      80     80   0.05
1214  12   14      50     80   0.06
1416  14   16      60     80   0.02
1514  15   14       1     80   0.02
13    1     3    1000    100   0.02
57    5     7     150     90   0.03
1113  11   13     120     80   0.03
1615  16   15      90     80   0.03
912   9    12     200     90   0.03      

[OPTIONS]
Units   LPS
Headloss   H-W

[END] 
