[TITLE]
EPANET Example Network 2
Example of modeling a 55-hour fluoride tracer study.
Measured fluoride data is contained in the file Net2-FL.dat
and should be registered with the project to produce a
Calibration Report (select Calibration Data from the Project
menu).

[JUNCTIONS]
1	50	-694.4	2
2	100	8	
3	60	14	
4	60	8	
5	100	8	
6	125	5	
7	160	4	
8	110	9	
9	180	14	
10	130	5	
11	185	34.78	
12	210	16	
13	210	2	
14	200	2	
15	190	2	
16	150	20	
17	180	20	
18	100	20	
19	150	5	
20	170	19	
21	150	16	
22	200	10	
23	230	8	
24	190	11	
25	230	6	
27	130	8	
28	110	0	
29	110	7	
30	130	3	
31	190	17	
32	110	17	
33	180	1.5	
34	190	1.5	
35	110	0	
36	110	1	

[TANKS]
26	235	56.7	50	70	50	0	

[RESERVOIRS]

[PIPES]
1	1	2	2400	12	100	0	Open
2	2	5	800	12	100	0	Open
3	2	3	1300	8	100	0	Open
4	3	4	1200	8	100	0	Open
5	4	5	1000	12	100	0	Open
6	5	6	1200	12	100	0	Open
7	6	7	2700	12	100	0	Open
8	7	8	1200	12	140	0	Open
9	7	9	400	12	100	0	Open
10	8	10	1000	8	140	0	Open
11	9	11	700	12	100	0	Open
12	11	12	1900	12	100	0	Open
13	12	13	600	12	100	0	Open
14	13	14	400	12	100	0	Open
15	14	15	300	12	100	0	Open
16	13	16	1500	8	100	0	Open
17	15	17	1500	8	100	0	Open
18	16	17	600	8	100	0	Open
19	17	18	700	12	100	0	Open
20	18	32	350	12	100	0	Open
21	16	19	1400	8	100	0	Open
22	14	20	1100	12	100	0	Open
23	20	21	1300	8	100	0	Open
24	21	22	1300	8	100	0	Open
25	20	22	1300	8	100	0	Open
26	24	23	600	12	100	0	Open
27	15	24	250	12	100	0	Open
28	23	25	300	12	100	0	Open
29	25	26	200	12	100	0	Open
30	25	31	600	12	100	0	Open
31	31	27	400	8	100	0	Open
32	27	29	400	8	100	0	Open
34	29	28	700	8	100	0	Open
35	22	33	1000	8	100	0	Open
36	33	34	400	8	100	0	Open
37	32	19	500	8	100	0	Open
38	29	35	500	8	100	0	Open
39	35	30	1000	8	100	0	Open
40	28	35	700	8	100	0	Open
41	28	36	300	8	100	0	Open

[PUMPS]

[VALVES]

[DEMANDS]

[PATTERNS]
1 1.26
1 1.04
1 0.97
1 0.97
1 0.89
1 1.19
1 1.28
1 0.67
1 0.67
1 1.34
1 2.46
1 0.97
1 0.92
1 0.68
1 1.43
1 0.61
1 0.31
1 0.78
1 0.37
1 0.67
1 1.26
1 1.56
1 1.19
1 1.26
1 0.6
1 1.1
1 1.03
1 0.73
1 0.88
1 1.06
1 0.99
1 1.72
1 1.12
1 1.34
1 1.12
1 0.97
1 1.04
1 1.15
1 0.91
1 0.61
1 0.68
1 0.46
1 0.51
1 0.74
1 1.12
1 1.34
1 1.26
1 0.97
1 0.82
1 1.37
1 1.03
1 0.81
1 0.88
1 0.81
1 0.81
2 0.96
2 0.96
2 0.96
2 0.96
2 0.96
2 0.96
2 0.62
2 0
2 0
2 0
2 0
2 0
2 0.8
2 1
2 1
2 1
2 1
2 0.15
2 0
2 0
2 0
2 0
2 0
2 0
2 0.55
2 0.92
2 0.92
2 0.92
2 0.92
2 0.9
2 0.9
2 0.45
2 0
2 0
2 0
2 0
2 0
2 0.7
2 1
2 1
2 1
2 1
2 0.2
2 0
2 0
2 0
2 0
2 0
2 0
2 0.74
2 0.92
2 0.92
2 0.92
2 0.92
2 0.92
3 0.98
3 1.02
3 1.05
3 0.99
3 0.64
3 0.46
3 0.35
3 0.35
3 0.35
3 0.35
3 0.35
3 0.35
3 0.17
3 0.17
3 0.13
3 0.13
3 0.13
3 0.15
3 0.15
3 0.15
3 0.15
3 0.15
3 0.15
3 0.15
3 0.15
3 0.12
3 0.1
3 0.08
3 0.11
3 0.09
3 0.09
3 0.08
3 0.08
3 0.08
3 0.08
3 0.08
3 0.08
3 0.09
3 0.07
3 0.07
3 0.09
3 0.09
3 0.09
3 0.09
3 0.09
3 0.09
3 0.09
3 0.09
3 0.09
3 0.08
3 0.35
3 0.72
3 0.82
3 0.92
3 1

[CURVES]

[CONTROLS]

[RULES]

[ENERGY]
Global Efficiency 75
Global Price 0.0
Demand Charge 0.0

[STATUS]

[EMITTERS]

[QUALITY]
1	1
2	1
3	1
4	1
5	1
6	1
7	1
8	1
9	1
10	1
11	1
12	1
13	1
14	1
15	1
16	1
17	1
18	1
19	1
20	1
21	1
22	1
23	1
24	1
25	1
27	1
28	1
29	1
30	1
31	1
32	1
33	1
34	1
35	1
36	1
26	1

[SOURCES]
1	CONCEN	1	3

[REACTIONS]
Order Bulk 1
Order Tank 1
Order Wall 1
Global Bulk 0.0
Global Wall 0.0
Limiting Potential 0.0
Roughness Correlation 0.0

[MIXING]

[TIMES]
Duration 55:00
Hydraulic Timestep 1:00
Quality Timestep 0:05
Pattern Timestep 1:00
Pattern Start 0:00
Report Timestep 1:00
Report Start 0:00
Start ClockTime 8 am
Statistic None

[REPORT]
Status No
Summary No
Page 0
Links All
Nodes All

[OPTIONS]
UNITS GPM
HEADLOSS H-W
QUALITY NONE
VISCOSITY 1.0
DIFFUSIVITY 1.0
SPECIFIC GRAVITY 1.0
TRIALS 40
ACCURACY 0.001
UNBALANCED STOP
PATTERN 1
DEMAND MULTIPLIER 1.0
EMITTER EXPONENT 0.5
TOLERANCE 0.01

[COORDINATES]
1	21	4
2	19	20
3	11	21
4	14	28
5	19	25
6	28	23
7	36	39
8	38	30
9	36	42
10	37	23
11	37	49
12	39	60
13	38	64
14	38	66
15	37	69
16	27	65
17	27	69
18	23	68
19	21	59
20	45	68
21	51	62
22	54	69
23	35	74
24	37	71
25	35	76
27	39	87
28	49	85
29	42	86
30	47	80
31	37	80
32	23	64
33	56	73
34	56	77
35	43	81
36	53	87
26	33	76

[VERTICES]

[LABELS]
24	7	Pump	
24	4	Station	
26.76	77.42	Tank	

[BACKDROP]
DIMENSIONS 8.75 -0.15 58.25 91.15
UNITS None
FILE
OFFSET 0.00 0.00

[TAGS]

[END]
